__TEMP__/v1/PMU/v1.0/others/Paper_Nodos_Debiles/ieee34_andes_out.txt
ANDES 1.9.3
Copyright (C) 2015-2022 Hantao Cui

ANDES comes with ABSOLUTELY NO WARRANTY
Case file: ieee34_andes.xlsx
Report time: 12/28/2025 06:41:01 PM

Power flow converged in 3 iterations.
Flat-start: No

Statistics:
Buses                             34
Generators                        34
Committed Gens                    34
Loads                             34
Shunts                             0
Lines                             33
Transformers                       0
Areas                              0

EXTENDED SUMMARY:
                              P (pu)            Q (pu)

Generation                   0.68449           -0.6694
Load                            0.68              0.17

BUS DATA:
                            Bus Name            Vm(pu)          Va(rad.)

1                                800              1.05        4.8593e-17
2                                802              1.02         -0.016953
3                                806              1.02         -0.021892
4                                808              1.02         -0.025293
5                                810              1.02         -0.025331
6                                812              1.02         -0.027082
7                                814              1.02         -0.027849
8                                816              1.02         -0.028215
9                                818              1.02         -0.028244
10                               820              1.02          -0.02829
11                               822              1.02         -0.028308
12                               824              1.02         -0.028554
13                               826              1.02         -0.028558
14                               828              1.02          -0.02864
15                               830              1.02         -0.028819
16                               832              1.02         -0.028912
17                               834              1.02         -0.028953
18                               836              1.02         -0.028968
19                               838              1.02         -0.028972
20                               840              1.02          -0.02897
21                               842              1.02         -0.028961
22                               844              1.02         -0.028966
23                               846              1.02         -0.028968
24                               848              1.02         -0.028969
25                               850              1.02         -0.028189
26                               852              1.02          -0.02889
27                               854              1.02         -0.028869
28                               856              1.02         -0.028869
29                               858              1.02         -0.028941
30                               860              1.02         -0.028963
31                               862              1.02         -0.028972
32                               864              1.02         -0.028942
33                               888              1.02          -0.02892
34                               890              1.02         -0.028922

LINE DATA:
                           Line Name     Fr. Bus (idx)      To Bus (idx)       P From (pu)       Q From (pu)         P To (pu)         Q To (pu)

1                                  1                 1                 2           0.66449           0.92907          -0.66072          -0.89312
2                                  2                 2                 3           0.64072         -0.064112          -0.64041          0.064001
3                                  3                 3                 4           0.62041         -0.063432           -0.6202          0.060629
4                                  4                 4                 5              0.02        -0.0052746             -0.02        -0.0012746
5                                  5                 4                 6            0.5802          -0.06077          -0.58009          0.055259
6                                  6                 6                 7           0.56009         -0.060705          -0.56005           0.05131
7                                  7                 7                25           0.54005         -0.059644          -0.54003          0.048365
8                                  8                25                 8           0.52003         -0.072465          -0.52003          0.031542
9                                  9                 8                 9              0.06         -0.012549             -0.06       -0.00054896
10                                10                 8                12           0.44003         -0.050478          -0.44001          0.037527
11                                11                 9                10              0.04         -0.011368             -0.04        -0.0033677
12                                12                10                11              0.02         -0.010187             -0.02        -0.0061872
13                                13                12                13              0.02         -0.011825             -0.02        -0.0078248
14                                14                12                14           0.40001         -0.049809          -0.40001          0.030194
15                                15                14                15           0.38001         -0.049429             -0.38          0.026573
16                                16                15                27              0.36         -0.048273             -0.36          0.023728
17                                17                27                28              0.02         -0.024106             -0.02         -0.020106
18                                18                27                26              0.32         -0.054103             -0.32         0.0098979
19                                19                26                16               0.3         -0.051284              -0.3         0.0087164
20                                20                16                29              0.24         -0.037096             -0.24          0.010904
21                                21                16                33              0.04           -0.0171             -0.04        -0.0090996
22                                22                33                34              0.02         -0.029018             -0.02         -0.025018
23                                23                29                32              0.02         -0.025743             -0.02         -0.021743
24                                24                29                17               0.2         -0.043742              -0.2        -0.0037421
25                                25                17                30               0.1         -0.023918              -0.1        -0.0039179
26                                26                17                21              0.08         -0.021918             -0.08        -0.0059181
27                                27                30                18              0.08         -0.032562             -0.08         -0.016562
28                                28                18                20              0.02         -0.016737             -0.02         -0.012737
29                                29                18                31              0.04         -0.018737             -0.04         -0.010737
30                                30                31                19              0.02         -0.027381             -0.02         -0.023381
31                                31                21                22              0.06         -0.023193             -0.06         -0.011193
32                                32                22                23              0.04         -0.022012             -0.04         -0.014012
33                                33                23                24              0.02         -0.020831             -0.02         -0.016831

OTHER ALGEBRAIC VARIABLES:


q PV 2                      -0.95223
q PV 3                      0.005569
q PV 4                     -0.000416
q PV 5                      0.003725
q PV 6                     -0.000446
q PV 7                     -0.003334
q PV 8                     -0.026485
q PV 9                     -0.006917
q PV 10                    -0.008555
q PV 11                    -0.001187
q PV 12                    -0.019107
q PV 13                    -0.002825
q PV 14                    -0.014235
q PV 15                      -0.0167
q PV 16                     -0.04048
q PV 17                    -0.044578
q PV 18                    -0.047036
q PV 19                    -0.018381
q PV 20                    -0.007737
q PV 21                    -0.024111
q PV 22                    -0.028205
q PV 23                    -0.029843
q PV 24                    -0.011831
q PV 25                      -0.0191
q PV 26                    -0.036386
q PV 27                     -0.04948
q PV 28                    -0.015106
q PV 29                    -0.053582
q PV 30                     -0.03148
q PV 31                    -0.033118
q PV 32                    -0.016743
q PV 33                    -0.033118
q PV 34                    -0.020018
q Slack 1                    0.93407
p Slack 1                    0.68449
